ligcore
  PyMOL2.4          3D                             0

 19 21  0  0  0  0  0  0  0  0999 V2000
  -92.0130  -13.9960  159.9630 N   0  0  0  0  0  0  0  0  0  0  0  0
  -93.3710  -14.2710  160.4610 C   0  0  0  0  0  0  0  0  0  0  0  0
  -94.4860  -14.1120  159.4540 C   0  0  0  0  0  0  0  0  0  0  0  0
  -95.7500  -14.4450  159.7610 C   0  0  0  0  0  0  0  0  0  0  0  0
  -96.7410  -14.3220  158.8300 N   0  0  0  0  0  0  0  0  0  0  0  0
  -98.1050  -14.7410  159.1610 C   0  0  0  0  0  0  0  0  0  0  0  0
  -98.2920  -16.2050  158.8020 C   0  0  0  0  0  0  0  0  0  0  0  0
  -99.5020  -16.6520  158.3060 C   0  0  0  0  0  0  0  0  0  0  0  0
  -99.6750  -17.9830  157.9830 C   0  0  0  0  0  0  0  0  0  0  0  0
  -98.6420  -18.8820  158.1550 C   0  0  0  0  0  0  0  0  0  0  0  0
  -97.4300  -18.4480  158.6430 C   0  0  0  0  0  0  0  0  0  0  0  0
  -97.2650  -17.1150  158.9620 C   0  0  0  0  0  0  0  0  0  0  0  0
  -96.4840  -13.8410  157.5940 C   0  0  0  0  0  0  0  0  0  0  0  0
  -97.3940  -13.7440  156.7790 O   0  0  0  0  0  0  0  0  0  0  0  0
  -95.1790  -13.4670  157.2390 C   0  0  0  0  0  0  0  0  0  0  0  0
  -94.1630  -13.5990  158.1710 C   0  0  0  0  0  0  0  0  0  0  0  0
  -92.8490  -13.2880  157.8610 N   0  0  0  0  0  0  0  0  0  0  0  0
  -91.8360  -13.5390  158.7030 C   0  0  0  0  0  0  0  0  0  0  0  0
  -90.7040  -13.3140  158.3200 O   0  0  0  0  0  0  0  0  0  0  0  0
  1  2  1  0  0  0  0
  2  3  1  0  0  0  0
  3  4  2  0  0  0  0
  4  5  1  0  0  0  0
  5  6  1  0  0  0  0
  6  7  1  0  0  0  0
  7  8  2  0  0  0  0
  8  9  1  0  0  0  0
  9 10  2  0  0  0  0
 10 11  1  0  0  0  0
  7 12  1  0  0  0  0
 11 12  2  0  0  0  0
  5 13  1  0  0  0  0
 13 14  2  0  0  0  0
 13 15  1  0  0  0  0
  3 16  1  0  0  0  0
 15 16  1  0  0  0  0
 16 17  2  0  0  0  0
  1 18  1  0  0  0  0
 17 18  1  0  0  0  0
 18 19  2  0  0  0  0
M  END
$$$$
